data/european906/voltage.csv
bus_id,phase,v_re_pu,v_im_pu,v_mag_pu,v_angle_deg
Sourcebus,a,1.0496,0,1.0496,0
Sourcebus,b,-0.5248,-0.908980263812147,1.0496,-120
Sourcebus,c,-0.52485,0.909066866352525,1.0497,120
1,a,0.895516689549655,-0.53739286387104,1.04438557602137,-30.9676540270721
1,b,-0.913376749913457,-0.502794602421852,1.04262145551826,-151.168145404958
1,c,0.0134087007542195,1.04488349108002,1.04496952261178,89.2647794701078
10,a,0.888246100359518,-0.52745065757237,1.03304662575191,-30.7023233509058
10,b,-0.89688512549966,-0.495226302473398,1.02452526518579,-151.094168239038
10,c,0.0141015346732175,1.03786559515597,1.03796138988336,89.221567116032
100,a,0.886066287954428,-0.524469861373186,1.02965144691694,-30.6216358620777
100,b,-0.89194073288758,-0.492957232707289,1.01910014437368,-151.071477069112
100,c,0.0143092548361602,1.03576154331191,1.03586038121836,89.2084975910514
101,a,0.8617241589272,-0.490331107084978,0.991460095341195,-29.6403815355016
101,b,-0.82473037688781,-0.465838063678852,0.947198657164151,-150.540640395623
101,c,0.0185372699029181,1.00381628580198,1.00398743319662,88.9420508167933
102,a,0.873470220460176,-0.5066921393175,1.00979559816672,-30.1176308119087
102,b,-0.858352067212076,-0.478937825539875,0.982929149033697,-150.8396345999
102,c,0.0163699159834274,1.02045990625851,1.02059119848763,89.0809568810291
103,a,0.886066287954429,-0.524469861373186,1.02965144691694,-30.6216358620777
103,b,-0.891940732887579,-0.492957232707289,1.01910014437368,-151.071477069112
103,c,0.0143092548361602,1.03576154331191,1.03586038121836,89.2084975910514
104,a,0.861726256540531,-0.49033051001953,0.991461623194448,-29.6402915969113
104,b,-0.824715018233389,-0.465827721023065,0.947180197730739,-150.540728223559
104,c,0.0185453610909411,1.00380988416486,1.00398118207716,88.941582397536
105,a,0.861573102323629,-0.490148202243113,0.991238352168498,-29.6355108088277
105,b,-0.824392265026343,-0.465700125557643,0.946836423876727,-150.537845785135
105,c,0.0185440348448105,1.00363059988604,1.00380190389137,88.9414690569426
106,a,0.873470220460176,-0.5066921393175,1.00979559816673,-30.1176308119086
106,b,-0.858352067212076,-0.478937825539875,0.982929149033697,-150.8396345999
106,c,0.0163699159834281,1.02045990625851,1.02059119848763,89.0809568810291
107,a,0.861728794363165,-0.49032978765274,0.991463471689288,-29.6401827840002
107,b,-0.824696436381223,-0.465815207836977,0.947157864366915,-150.540834487817
107,c,0.018555150311765,1.00380213906744,1.00397361917506,88.9410156670846
108,a,0.861487445739961,-0.490044486129284,0.991112615979272,-29.6327478969891
108,b,-0.824200538837176,-0.465621907803893,0.946631020644489,-150.536260152195
108,c,0.0185478709022722,1.00352530676532,1.00369669962267,88.9411390747074
109,a,0.873470220460178,-0.506692139317499,1.00979559816673,-30.1176308119085
109,b,-0.858352067212076,-0.478937825539875,0.982929149033697,-150.8396345999
109,c,0.0163699159834291,1.02045990625851,1.02059119848764,89.080956881029
11,a,0.888106321414025,-0.527259516101443,1.0328288509986,-30.6971652412604
11,b,-0.896568069782476,-0.495080799962073,1.02417737831128,-151.092720396938
11,c,0.0141148545833466,1.03773067430345,1.03782666255507,89.2207306297205
110,a,0.861731735880715,-0.490328950378078,0.991465614231204,-29.6400566625782
110,b,-0.824674898688429,-0.465800704161271,0.947131978408451,-150.540957661946
110,c,0.0185664967173287,1.00379316194679,1.00396485335469,88.9403587753618
111,a,0.858107665497836,-0.48595212501356,0.986153250459248,-29.5231685539978
111,b,-0.816635534977634,-0.462535643942009,0.938526940958572,-150.473141360891
111,c,0.0186992314943174,0.999370721165552,0.999545646572198,88.9280634134647
112,a,0.873470220460209,-0.506692139317477,1.00979559816674,-30.1176308119066
112,b,-0.858352067212073,-0.478937825539876,0.982929149033695,-150.8396345999
112,c,0.0163699159834559,1.02045990625857,1.02059119848769,89.0809568810275
113,a,0.861736220822126,-0.490327673782667,0.991468880981103,-29.6398643658837
113,b,-0.824642060097925,-0.465778590359581,0.947092510011513,-150.541145478902
113,c,0.0185837966189277,1.00377947450164,1.00395148833375,88.9393571883297
114,a,0.857769085081359,-0.485542159503475,0.985656629854743,-29.5121303311139
114,b,-0.815877686249634,-0.462226467478199,0.937715151929108,-150.466758112311
114,c,0.0187143945311486,0.998954522116535,0.999129804289584,88.9267475294512
115,a,0.873470220460237,-0.506692139317457,1.00979559816676,-30.1176308119048
115,b,-0.85835206721207,-0.478937825539877,0.982929149033693,-150.8396345999
115,c,0.0163699159834794,1.02045990625861,1.02059119848774,89.0809568810263
116,a,0.861741986822069,-0.490326032546273,0.991473080847189,-29.6396171442862
116,b,-0.824599841639827,-0.465750160070834,0.947041768053783,-150.541386966051
116,c,0.0186060379867677,1.00376187743609,1.003934306239,88.9380694732927
117,a,0.857775206910871,-0.485550662504701,0.9856661460402,-29.5123851737218
117,b,-0.815846382635113,-0.462213646067022,0.93768159556929,-150.466496899133
117,c,0.018734124390816,0.998920198099666,0.999095856055947,88.9255793977391
118,a,0.856575010960309,-0.484360169757451,0.984035326321733,-29.4864868469756
118,b,-0.813979914270861,-0.461093689817921,0.935505580756365,-150.469828358479
118,c,0.0188267177181132,0.997986148278624,0.998163712752593,88.9192600158497
119,a,0.87347022046024,-0.506692139317456,1.00979559816676,-30.1176308119046
119,b,-0.85835206721207,-0.478937825539877,0.982929149033693,-150.8396345999
119,c,0.0163699159834817,1.02045990625862,1.02059119848775,89.0809568810261
12,a,0.887975103375436,-0.527080081288714,1.03262442170711,-30.6923210656013
12,b,-0.896270432472469,-0.494944208903395,1.02385079872577,-151.091360334075
12,c,0.0141273587017253,1.03760401681888,1.03770018694349,89.2199451772242
120,a,0.861746126258822,-0.490324854295438,0.99147609596093,-29.6394396641042
120,b,-0.824569532822833,-0.46572974984134,0.947005340189242,-150.541560346696
120,c,0.0186220051626882,1.00374924442523,1.00392197145022,88.9371449898162
121,a,0.857775206910872,-0.485550662504701,0.985666146040201,-29.5123851737218
121,b,-0.815846382635113,-0.462213646067022,0.937681595569291,-150.466496899133
121,c,0.018734124390816,0.998920198099667,0.999095856055949,88.9255793977391
122,a,0.857778187592894,-0.48555480256493,0.985670779420806,-29.5125092532757
122,b,-0.815831141093205,-0.462207403398923,0.937665257186281,-150.466369709238
122,c,0.0187437307409946,0.998903485941995,0.999079327015207,88.9250106126884
123,a,0.854421653307498,-0.482228604706109,0.981112016457611,-29.4400279387821
123,b,-0.810557528891482,-0.459050872374103,0.931520912846347,-150.475401966272
123,c,0.0190292780030852,0.996239811784191,0.996421535297746,88.9057205566386
124,a,0.873470220460242,-0.506692139317454,1.00979559816676,-30.1176308119045
124,b,-0.85835206721207,-0.478937825539878,0.982929149033693,-150.8396345999
124,c,0.0163699159834832,1.02045990625862,1.02059119848775,89.080956881026
125,a,0.861751975252621,-0.490323189435642,0.991480356310771,-29.6391888877477
125,b,-0.824526706686509,-0.465700910336621,0.946953867898357,-150.541805355019
125,c,0.0186445666652649,1.00373139407346,1.00390454292965,88.9358386627098
126,a,0.857775206910873,-0.485550662504702,0.985666146040202,-29.5123851737218
126,b,-0.815846382635114,-0.462213646067023,0.937681595569291,-150.466496899133
126,c,0.0187341243908161,0.998920198099668,0.99909585605595,88.9255793977391
127,a,0.857792189838255,-0.485574251180613,0.985692545552173,-29.5130921218319
127,b,-0.815759541436546,-0.462178077436021,0.937588504999512,-150.465772154407
127,c,0.0187888581551836,0.998824977825261,0.999001680438231,88.9223383992256
128,a,0.853453289115774,-0.481270040639728,0.979797616204438,-29.4190450235441
128,b,-0.809018483370017,-0.458132218076133,0.929729011956537,-150.477923988775
128,c,0.019120369293181,0.995454484866619,0.995638096882082,88.899616421497
129,a,0.873470220460244,-0.506692139317454,1.00979559816676,-30.1176308119045
129,b,-0.85835206721207,-0.478937825539878,0.982929149033693,-150.8396345999
129,c,0.0163699159834849,1.02045990625862,1.02059119848775,89.080956881026
13,a,0.887894416260161,-0.526969745258892,1.03249872002061,-30.6893413873645
13,b,-0.896087412697132,-0.494860217871251,1.02364998237963,-151.090523588692
13,c,0.014135047593069,1.03752613402801,1.03762241608476,89.2194621005698
130,a,0.861758303443196,-0.490321388177096,0.991484965724246,-29.6389175681955
130,b,-0.824480371887471,-0.465669708066928,0.946898178601501,-150.542070466399
130,c,0.0186689765882139,1.00371208127681,1.00388568711177,88.9344252596602
131,a,0.857775206910873,-0.485550662504702,0.985666146040202,-29.5123851737218
131,b,-0.815846382635114,-0.462213646067023,0.937681595569292,-150.466496899133
131,c,0.0187341243908161,0.998920198099669,0.99909585605595,88.9255793977391
132,a,0.857640970007659,-0.485433562702931,0.9854916423969,-29.510304988165
132,b,-0.815761538757145,-0.462175916945594,0.937589177795864,-150.465947192424
132,c,0.0187868608345967,0.998827138315687,0.999003802983714,88.922455261582
133,a,0.857886358240694,-0.48565396588678,0.985813764479396,-29.5144278254643
133,b,-0.815538350936119,-0.462112864726998,0.937363910972573,-150.462575634575
133,c,0.0189349050891344,0.99858409491959,0.998763598283954,88.913701753053
134,a,0.853165174147377,-0.480984841478036,0.979406571404121,-29.4127911585919
134,b,-0.808560575017386,-0.457858893167705,0.929195872529146,-150.478676237385
134,c,0.019147471456181,0.995220828519171,0.99540500459941,88.8977984187938
135,a,0.87347022046025,-0.506692139317451,1.00979559816676,-30.1176308119041
135,b,-0.858352067212068,-0.478937825539878,0.982929149033692,-150.8396345999
135,c,0.0163699159834902,1.02045990625863,1.02059119848776,89.0809568810257
136,a,0.861764271436073,-0.490319689445357,0.991489312792396,-29.6386616943388
136,b,-0.824436674443892,-0.46564028181608,0.946845659132397,-150.542320516336
136,c,0.0186919971095714,1.00369386775567,1.00386790511814,88.933092258214
137,a,0.857775206910873,-0.485550662504702,0.985666146040203,-29.5123851737218
137,b,-0.815846382635115,-0.462213646067023,0.937681595569292,-150.466496899133
137,c,0.0187341243908161,0.99892019809967,0.999095856055951,88.9255793977391
138,a,0.857627947024865,-0.485421446675443,0.985474340817946,-29.5100649083388
138,b,-0.815761710765483,-0.462175730885144,0.937589235737188,-150.465962266607
138,c,0.0187866888262594,0.998827324376136,0.999003985776556,88.9224653256916
139,a,0.85795641453652,-0.485713269399343,0.985903945278119,-29.5154213050385
139,b,-0.81537379693785,-0.462064349930988,0.937196826824543,-150.46019659955
139,c,0.0190435562602753,0.99840489081649,0.998586492518964,88.9072738750371
14,a,0.887693541505578,-0.526695057995173,1.03218579129305,-30.6819201716453
14,b,-0.895631775482574,-0.494651117844416,1.02315004062884,-151.088439040965
14,c,0.0141541894864977,1.03733224078434,1.03742880182241,89.2182591416016
140,a,0.852839949330832,-0.480662908030579,0.978965173196181,-29.4057257791367
140,b,-0.808043687051419,-0.457550363403718,0.928594063751501,-150.479526415127
140,c,0.0191780644379991,0.994957076714965,0.995141890717488,88.8957452300343
141,a,0.873470220460256,-0.506692139317449,1.00979559816677,-30.1176308119038
141,b,-0.858352067212067,-0.478937825539879,0.982929149033691,-150.839634599899
141,c,0.0163699159834943,1.02045990625864,1.02059119848777,89.0809568810254
142,a,0.861774083768355,-0.490316896459404,0.991496460108845,-29.6382410017795
142,b,-0.82436482887619,-0.465591900365716,0.946759308786678,-150.542731698621
142,c,0.0187298465188337,1.00366392182156,1.00383866986526,88.9309004885485
143,a,0.857775206910874,-0.485550662504702,0.985666146040203,-29.5123851737218
143,b,-0.815846382635115,-0.462213646067023,0.937681595569292,-150.466496899133
143,c,0.0187341243908162,0.99892019809967,0.999095856055952,88.9255793977391
144,a,0.857615169004583,-0.485409558550624,0.985457364698784,-29.5098293362242
144,b,-0.815761879538342,-0.462175548324495,0.937589292588698,-150.465977057242
144,c,0.0187865200534015,0.998827506936786,0.999004165131093,88.9224752004916
145,a,0.858003329506959,-0.485752983496497,0.985964337296626,-29.51608651216
145,b,-0.815263599190834,-0.462031860770752,0.937084935602359,-150.458602944275
145,c,0.0191163172651506,0.99828488225623,0.99846789619252,88.9029680091182
146,a,0.852534081345563,-0.480360135517674,0.978550059859117,-29.3990751029689
146,b,-0.80755756338337,-0.457260196809703,0.928028073801721,-150.480326997886
146,c,0.0192068365772579,0.994709022972263,0.99489443809569,88.8938132526424
147,a,0.873470220460257,-0.506692139317448,1.00979559816677,-30.1176308119038
147,b,-0.858352067212066,-0.478937825539878,0.98292914903369,-150.839634599899
147,c,0.016369915983495,1.02045990625864,1.02059119848777,89.0809568810254
148,a,0.861820739262593,-0.490303616421967,0.991530444766867,-29.6362407836361
148,b,-0.824023218912988,-0.465361857149316,0.946348732443375,-150.544687807083
148,c,0.0189098121829487,1.00352153545344,1.00369968273166,88.9204773563829
149,a,0.857775206910874,-0.485550662504702,0.985666146040204,-29.5123851737217
149,b,-0.815846382635115,-0.462213646067023,0.937681595569293,-150.466496899133
149,c,0.0187341243908162,0.998920198099671,0.999095856055953,88.9255793977391
15,a,0.886066287954435,-0.524469861373188,1.02965144691695,-30.6216358620776
15,b,-0.891940732887587,-0.492957232707294,1.01910014437369,-151.071477069112
15,c,0.0143092548361592,1.03576154331192,1.03586038121837,89.2084975910515
150,a,0.857604851294379,-0.485399959393317,0.985443657213687,-29.5096391157959
150,b,-0.815762015815277,-0.462175400914502,0.93758933849393,-150.465989000052
150,c,0.0187863837764667,0.998827654346778,0.999004309952307,88.9224831739717
151,a,0.857986203624863,-0.485808245823108,0.985976661650939,-29.5193713703782
151,b,-0.815280725072931,-0.462087123097375,0.937127083168474,-150.456179713335
151,c,0.0191250020040439,0.998149435483534,0.998332640585167,88.9023208420165
152,a,0.858023465667649,-0.485748854058543,0.985979825785249,-29.5153012098498
152,b,-0.81387587137393,-0.461636481186155,0.935682731895064,-150.437768483598
152,c,0.0191364534258559,0.998289011694183,0.998472410594839,88.9018172755648
153,a,0.852177191810423,-0.480006857807721,0.9780657185406,-29.3913078974203
153,b,-0.806990349885173,-0.456921627800069,0.927367671832083,-150.48126236043
153,c,0.019240408169904,0.994419591618913,0.994605709566394,88.8915577886844
154,a,0.873470220460257,-0.506692139317448,1.00979559816677,-30.1176308119038
154,b,-0.858352067212066,-0.478937825539878,0.98292914903369,-150.839634599899
154,c,0.0163699159834952,1.02045990625864,1.02059119848777,89.0809568810254
155,a,0.861830902918559,-0.490300723435108,0.991537848307572,-29.6358050647393
155,b,-0.823948800965063,-0.465311743435014,0.946259290675816,-150.545114160277
155,c,0.0189490167637956,1.00349051732614,1.0036694095168,88.9182063485199
156,a,0.857775206910874,-0.485550662504703,0.985666146040204,-29.5123851737218
156,b,-0.815846382635116,-0.462213646067024,0.937681595569293,-150.466496899133
156,c,0.0187341243908162,0.998920198099672,0.999095856055953,88.9255793977391
157,a,0.857589365231333,-0.485385551821066,0.985423083388309,-29.5093536001179
157,b,-0.815762220356127,-0.462175179663818,0.937589407394112,-150.466006925258
157,c,0.0187861792356178,0.998827875597462,0.999004527317475,88.9224951415274
158,a,0.857940784766999,-0.485954804799961,0.986009362265279,-29.5280826119588
158,b,-0.815326143930799,-0.462233682074258,0.937238869136888,-150.449754216257
158,c,0.0191480344481065,0.997790222586763,0.997973935287374,88.9006036668539
159,a,0.858024691283868,-0.485748602714396,0.985980768520241,-29.5152534120981
159,b,-0.813791405335607,-0.461612415842261,0.935597388761763,-150.436498348141
...
